Circuit: * C:\Users\Public\Documents\Altium\Projects\SW8E-StandaloneLeakDetector\LTSpiceSim.asc

Direct Newton iteration for .op point succeeded.

Date: Sun May 22 18:41:13 2022
Total elapsed time: 0.093 seconds.

tnom = 27
temp = 27
method = modified trap
totiter = 2091
traniter = 2088
tranpoints = 1045
accept = 1045
rejected = 0
matrix size = 4
fillins = 0
solver = Normal
Matrix Compiler1: 118 bytes object code size  0.0/0.0/[0.0]
Matrix Compiler2: 282 bytes object code size  0.0/0.1/[0.0]

